52
Mode: 0, Frequency: -180.29 cm**-1, Amplitude: 0.00
O 1.917597 -0.592881 2.126722
C 1.611285 -0.591019 0.957332
N 2.457921 -0.558156 -0.131544
C 3.866111 -0.536342 -0.160177
C 4.527669 -0.335396 -1.381279
C 5.919260 -0.307457 -1.420936
C 6.670263 -0.476309 -0.257446
C 6.007345 -0.677976 0.952561
C 4.615252 -0.711606 1.014173
N 1.759327 -0.524764 -1.336625
C 0.502800 -0.522382 -1.100415
C -0.488380 -0.532298 -2.212048
C 0.174820 -0.636970 0.387871
O -0.474678 -1.796111 0.711314
C -1.950065 -0.369426 1.382567
N -2.749261 -0.941187 0.209190
H -2.020604 -1.256532 -0.447412
C -3.464179 -2.180305 0.640355
C -4.207526 -2.764354 -0.545210
O -5.108657 -1.830938 -1.088810
C -4.441421 -0.687088 -1.551154
C -3.696281 0.019911 -0.429550
O -2.480381 -0.425055 2.450225
C -0.696679 0.449520 1.065878
C -0.896021 1.846841 0.519491
C -2.026167 2.596212 0.877619
C -2.191627 3.902206 0.420094
C -1.221427 4.488408 -0.394155
C -0.082949 3.760652 -0.736588
C 0.080988 2.451226 -0.281127
H 3.943323 -0.204435 -2.289598
H 6.419661 -0.149897 -2.378287
H 7.760311 -0.452350 -0.293960
H 6.578382 -0.815243 1.872773
H 4.108149 -0.868340 1.962215
H -1.229018 0.273276 -2.082359
H -1.015727 -1.500488 -2.236795
H 0.020150 -0.399181 -3.174895
H -4.154132 -1.889780 1.440763
H -2.698301 -2.862611 1.027794
H -4.783831 -3.636713 -0.212627
H -3.488259 -3.100352 -1.316847
H -5.188781 -0.000963 -1.969302
H -3.728133 -0.953588 -2.354941
H -4.387317 0.360943 0.353479
H -3.126291 0.872358 -0.817841
H -0.258189 0.542884 2.074280
H -2.786867 2.155131 1.526756
H -3.080884 4.466170 0.707250
H -1.348977 5.511189 -0.752479
H 0.690111 4.212790 -1.360315
H 0.989832 1.908061 -0.547535
52
Mode: 0, Frequency: -180.29 cm**-1, Amplitude: -0.20
O 1.913597 -0.586881 2.122722
C 1.607285 -0.585019 0.953332
N 2.455921 -0.558156 -0.133544
C 3.864111 -0.536342 -0.160177
C 4.527669 -0.335396 -1.381279
C 5.919260 -0.307457 -1.418936
C 6.670263 -0.476309 -0.255446
C 6.005345 -0.677976 0.954561
C 4.613252 -0.711606 1.014173
N 1.761327 -0.520764 -1.342625
C 0.504800 -0.502382 -1.108415
C -0.484380 -0.522298 -2.220048
C 0.168820 -0.648970 0.377871
O -0.424678 -1.848111 0.631314
C -2.000065 -0.315426 1.400567
N -2.751261 -0.937187 0.235190
H -1.978604 -1.274532 -0.371412
C -3.472179 -2.174305 0.664355
C -4.201526 -2.762354 -0.531210
O -5.098657 -1.834938 -1.086810
C -4.425421 -0.699088 -1.557154
C -3.686281 0.017911 -0.439550
O -2.512381 -0.389055 2.468225
C -0.708679 0.433520 1.077878
C -0.898021 1.838841 0.529491
C -2.028167 2.594212 0.879619
C -2.189627 3.898206 0.420094
C -1.217427 4.482408 -0.394155
C -0.078949 3.750652 -0.730588
C 0.080988 2.441226 -0.271127
H 3.943323 -0.204435 -2.289598
H 6.419661 -0.149897 -2.376287
H 7.760311 -0.452350 -0.291960
H 6.576382 -0.815243 1.874773
H 4.106149 -0.868340 1.962215
H -1.231018 0.277276 -2.096359
H -1.003727 -1.496488 -2.232795
H 0.022150 -0.395181 -3.184895
H -4.176132 -1.881780 1.452763
H -2.710301 -2.852611 1.061794
H -4.777831 -3.636713 -0.200627
H -3.472259 -3.098352 -1.292847
H -5.168781 -0.010963 -1.983302
H -3.710133 -0.975588 -2.356941
H -4.385317 0.372943 0.329479
H -3.106291 0.862358 -0.831841
H -0.262189 0.524884 2.082280
H -2.794867 2.161131 1.528756
H -3.078884 4.464170 0.705250
H -1.340977 5.503189 -0.754479
H 0.696111 4.198790 -1.352315
H 0.991832 1.898061 -0.533535
52
Mode: 0, Frequency: -180.29 cm**-1, Amplitude: -0.40
O 1.909597 -0.580881 2.118722
C 1.603285 -0.579019 0.949332
N 2.453921 -0.558156 -0.135544
C 3.862111 -0.536342 -0.160177
C 4.527669 -0.335396 -1.381279
C 5.919260 -0.307457 -1.416936
C 6.670263 -0.476309 -0.253446
C 6.003345 -0.677976 0.956561
C 4.611252 -0.711606 1.014173
N 1.763327 -0.516764 -1.348625
C 0.506800 -0.482382 -1.116415
C -0.480380 -0.512298 -2.228048
C 0.162820 -0.660970 0.367871
O -0.374678 -1.900111 0.551314
C -2.050065 -0.261426 1.418567
N -2.753261 -0.933187 0.261190
H -1.936604 -1.292532 -0.295412
C -3.480179 -2.168305 0.688355
C -4.195526 -2.760354 -0.517210
O -5.088657 -1.838938 -1.084810
C -4.409421 -0.711088 -1.563154
C -3.676281 0.015911 -0.449550
O -2.544381 -0.353055 2.486225
C -0.720679 0.417520 1.089878
C -0.900021 1.830841 0.539491
C -2.030167 2.592212 0.881619
C -2.187627 3.894206 0.420094
C -1.213427 4.476408 -0.394155
C -0.074949 3.740652 -0.724588
C 0.080988 2.431226 -0.261127
H 3.943323 -0.204435 -2.289598
H 6.419661 -0.149897 -2.374287
H 7.760311 -0.452350 -0.289960
H 6.574382 -0.815243 1.876773
H 4.104149 -0.868340 1.962215
H -1.233018 0.281276 -2.110359
H -0.991727 -1.492488 -2.228795
H 0.024150 -0.391181 -3.194895
H -4.198132 -1.873780 1.464763
H -2.722301 -2.842611 1.095794
H -4.771831 -3.636713 -0.188627
H -3.456259 -3.096352 -1.268847
H -5.148781 -0.020963 -1.997302
H -3.692133 -0.997588 -2.358941
H -4.383317 0.384943 0.305479
H -3.086291 0.852358 -0.845841
H -0.266189 0.506884 2.090280
H -2.802867 2.167131 1.530756
H -3.076884 4.462170 0.703250
H -1.332977 5.495189 -0.756479
H 0.702111 4.184790 -1.344315
H 0.993832 1.888061 -0.519535
52
Mode: 0, Frequency: -180.29 cm**-1, Amplitude: -0.60
O 1.905597 -0.574881 2.114722
C 1.599285 -0.573019 0.945332
N 2.451921 -0.558156 -0.137544
C 3.860111 -0.536342 -0.160177
C 4.527669 -0.335396 -1.381279
C 5.919260 -0.307457 -1.414936
C 6.670263 -0.476309 -0.251446
C 6.001345 -0.677976 0.958561
C 4.609252 -0.711606 1.014173
N 1.765327 -0.512764 -1.354625
C 0.508800 -0.462382 -1.124415
C -0.476380 -0.502298 -2.236048
C 0.156820 -0.672970 0.357871
O -0.324678 -1.952111 0.471314
C -2.100065 -0.207426 1.436567
N -2.755261 -0.929187 0.287190
H -1.894604 -1.310532 -0.219412
C -3.488179 -2.162305 0.712355
C -4.189526 -2.758354 -0.503210
O -5.078657 -1.842938 -1.082810
C -4.393421 -0.723088 -1.569154
C -3.666281 0.013911 -0.459550
O -2.576381 -0.317055 2.504225
C -0.732679 0.401520 1.101878
C -0.902021 1.822841 0.549491
C -2.032167 2.590212 0.883619
C -2.185627 3.890206 0.420094
C -1.209427 4.470408 -0.394155
C -0.070949 3.730652 -0.718588
C 0.080988 2.421226 -0.251127
H 3.943323 -0.204435 -2.289598
H 6.419661 -0.149897 -2.372287
H 7.760311 -0.452350 -0.287960
H 6.572382 -0.815243 1.878773
H 4.102149 -0.868340 1.962215
H -1.235018 0.285276 -2.124359
H -0.979727 -1.488488 -2.224795
H 0.026150 -0.387181 -3.204895
H -4.220132 -1.865780 1.476763
H -2.734301 -2.832611 1.129794
H -4.765831 -3.636713 -0.176627
H -3.440259 -3.094352 -1.244847
H -5.128781 -0.030963 -2.011302
H -3.674133 -1.019588 -2.360941
H -4.381317 0.396943 0.281479
H -3.066291 0.842358 -0.859841
H -0.270189 0.488884 2.098280
H -2.810867 2.173131 1.532756
H -3.074884 4.460170 0.701250
H -1.324977 5.487189 -0.758479
H 0.708111 4.170790 -1.336315
H 0.995832 1.878061 -0.505535
52
Mode: 0, Frequency: -180.29 cm**-1, Amplitude: -0.80
O 1.901597 -0.568881 2.110722
C 1.595285 -0.567019 0.941332
N 2.449921 -0.558156 -0.139544
C 3.858111 -0.536342 -0.160177
C 4.527669 -0.335396 -1.381279
C 5.919260 -0.307457 -1.412936
C 6.670263 -0.476309 -0.249446
C 5.999345 -0.677976 0.960561
C 4.607252 -0.711606 1.014173
N 1.767327 -0.508764 -1.360625
C 0.510800 -0.442382 -1.132415
C -0.472380 -0.492298 -2.244048
C 0.150820 -0.684970 0.347871
O -0.274678 -2.004111 0.391314
C -2.150065 -0.153426 1.454567
N -2.757261 -0.925187 0.313190
H -1.852604 -1.328532 -0.143412
C -3.496179 -2.156305 0.736355
C -4.183526 -2.756354 -0.489210
O -5.068657 -1.846938 -1.080810
C -4.377421 -0.735088 -1.575154
C -3.656281 0.011911 -0.469550
O -2.608381 -0.281055 2.522225
C -0.744679 0.385520 1.113878
C -0.904021 1.814841 0.559491
C -2.034167 2.588212 0.885619
C -2.183627 3.886206 0.420094
C -1.205427 4.464408 -0.394155
C -0.066949 3.720652 -0.712588
C 0.080988 2.411226 -0.241127
H 3.943323 -0.204435 -2.289598
H 6.419661 -0.149897 -2.370287
H 7.760311 -0.452350 -0.285960
H 6.570382 -0.815243 1.880773
H 4.100149 -0.868340 1.962215
H -1.237018 0.289276 -2.138359
H -0.967727 -1.484488 -2.220795
H 0.028150 -0.383181 -3.214895
H -4.242132 -1.857780 1.488763
H -2.746301 -2.822611 1.163794
H -4.759831 -3.636713 -0.164627
H -3.424259 -3.092352 -1.220847
H -5.108781 -0.040963 -2.025302
H -3.656133 -1.041588 -2.362941
H -4.379317 0.408943 0.257479
H -3.046291 0.832358 -0.873841
H -0.274189 0.470884 2.106280
H -2.818867 2.179131 1.534756
H -3.072884 4.458170 0.699250
H -1.316977 5.479189 -0.760479
H 0.714111 4.156790 -1.328315
H 0.997832 1.868061 -0.491535
52
Mode: 0, Frequency: -180.29 cm**-1, Amplitude: -1.00
O 1.897597 -0.562881 2.106722
C 1.591285 -0.561019 0.937332
N 2.447921 -0.558156 -0.141544
C 3.856111 -0.536342 -0.160177
C 4.527669 -0.335396 -1.381279
C 5.919260 -0.307457 -1.410936
C 6.670263 -0.476309 -0.247446
C 5.997345 -0.677976 0.962561
C 4.605252 -0.711606 1.014173
N 1.769327 -0.504764 -1.366625
C 0.512800 -0.422382 -1.140415
C -0.468380 -0.482298 -2.252048
C 0.144820 -0.696970 0.337871
O -0.224678 -2.056111 0.311314
C -2.200065 -0.099426 1.472567
N -2.759261 -0.921187 0.339190
H -1.810604 -1.346532 -0.067412
C -3.504179 -2.150305 0.760355
C -4.177526 -2.754354 -0.475210
O -5.058657 -1.850938 -1.078810
C -4.361421 -0.747088 -1.581154
C -3.646281 0.009911 -0.479550
O -2.640381 -0.245055 2.540225
C -0.756679 0.369520 1.125878
C -0.906021 1.806841 0.569491
C -2.036167 2.586212 0.887619
C -2.181627 3.882206 0.420094
C -1.201427 4.458408 -0.394155
C -0.062949 3.710652 -0.706588
C 0.080988 2.401226 -0.231127
H 3.943323 -0.204435 -2.289598
H 6.419661 -0.149897 -2.368287
H 7.760311 -0.452350 -0.283960
H 6.568382 -0.815243 1.882773
H 4.098149 -0.868340 1.962215
H -1.239018 0.293276 -2.152359
H -0.955727 -1.480488 -2.216795
H 0.030150 -0.379181 -3.224895
H -4.264132 -1.849780 1.500763
H -2.758301 -2.812611 1.197794
H -4.753831 -3.636713 -0.152627
H -3.408259 -3.090352 -1.196847
H -5.088781 -0.050963 -2.039302
H -3.638133 -1.063588 -2.364941
H -4.377317 0.420943 0.233479
H -3.026291 0.822358 -0.887841
H -0.278189 0.452884 2.114280
H -2.826867 2.185131 1.536756
H -3.070884 4.456170 0.697250
H -1.308977 5.471189 -0.762479
H 0.720111 4.142790 -1.320315
H 0.999832 1.858061 -0.477535
52
Mode: 0, Frequency: -180.29 cm**-1, Amplitude: -0.80
O 1.901597 -0.568881 2.110722
C 1.595285 -0.567019 0.941332
N 2.449921 -0.558156 -0.139544
C 3.858111 -0.536342 -0.160177
C 4.527669 -0.335396 -1.381279
C 5.919260 -0.307457 -1.412936
C 6.670263 -0.476309 -0.249446
C 5.999345 -0.677976 0.960561
C 4.607252 -0.711606 1.014173
N 1.767327 -0.508764 -1.360625
C 0.510800 -0.442382 -1.132415
C -0.472380 -0.492298 -2.244048
C 0.150820 -0.684970 0.347871
O -0.274678 -2.004111 0.391314
C -2.150065 -0.153426 1.454567
N -2.757261 -0.925187 0.313190
H -1.852604 -1.328532 -0.143412
C -3.496179 -2.156305 0.736355
C -4.183526 -2.756354 -0.489210
O -5.068657 -1.846938 -1.080810
C -4.377421 -0.735088 -1.575154
C -3.656281 0.011911 -0.469550
O -2.608381 -0.281055 2.522225
C -0.744679 0.385520 1.113878
C -0.904021 1.814841 0.559491
C -2.034167 2.588212 0.885619
C -2.183627 3.886206 0.420094
C -1.205427 4.464408 -0.394155
C -0.066949 3.720652 -0.712588
C 0.080988 2.411226 -0.241127
H 3.943323 -0.204435 -2.289598
H 6.419661 -0.149897 -2.370287
H 7.760311 -0.452350 -0.285960
H 6.570382 -0.815243 1.880773
H 4.100149 -0.868340 1.962215
H -1.237018 0.289276 -2.138359
H -0.967727 -1.484488 -2.220795
H 0.028150 -0.383181 -3.214895
H -4.242132 -1.857780 1.488763
H -2.746301 -2.822611 1.163794
H -4.759831 -3.636713 -0.164627
H -3.424259 -3.092352 -1.220847
H -5.108781 -0.040963 -2.025302
H -3.656133 -1.041588 -2.362941
H -4.379317 0.408943 0.257479
H -3.046291 0.832358 -0.873841
H -0.274189 0.470884 2.106280
H -2.818867 2.179131 1.534756
H -3.072884 4.458170 0.699250
H -1.316977 5.479189 -0.760479
H 0.714111 4.156790 -1.328315
H 0.997832 1.868061 -0.491535
52
Mode: 0, Frequency: -180.29 cm**-1, Amplitude: -0.60
O 1.905597 -0.574881 2.114722
C 1.599285 -0.573019 0.945332
N 2.451921 -0.558156 -0.137544
C 3.860111 -0.536342 -0.160177
C 4.527669 -0.335396 -1.381279
C 5.919260 -0.307457 -1.414936
C 6.670263 -0.476309 -0.251446
C 6.001345 -0.677976 0.958561
C 4.609252 -0.711606 1.014173
N 1.765327 -0.512764 -1.354625
C 0.508800 -0.462382 -1.124415
C -0.476380 -0.502298 -2.236048
C 0.156820 -0.672970 0.357871
O -0.324678 -1.952111 0.471314
C -2.100065 -0.207426 1.436567
N -2.755261 -0.929187 0.287190
H -1.894604 -1.310532 -0.219412
C -3.488179 -2.162305 0.712355
C -4.189526 -2.758354 -0.503210
O -5.078657 -1.842938 -1.082810
C -4.393421 -0.723088 -1.569154
C -3.666281 0.013911 -0.459550
O -2.576381 -0.317055 2.504225
C -0.732679 0.401520 1.101878
C -0.902021 1.822841 0.549491
C -2.032167 2.590212 0.883619
C -2.185627 3.890206 0.420094
C -1.209427 4.470408 -0.394155
C -0.070949 3.730652 -0.718588
C 0.080988 2.421226 -0.251127
H 3.943323 -0.204435 -2.289598
H 6.419661 -0.149897 -2.372287
H 7.760311 -0.452350 -0.287960
H 6.572382 -0.815243 1.878773
H 4.102149 -0.868340 1.962215
H -1.235018 0.285276 -2.124359
H -0.979727 -1.488488 -2.224795
H 0.026150 -0.387181 -3.204895
H -4.220132 -1.865780 1.476763
H -2.734301 -2.832611 1.129794
H -4.765831 -3.636713 -0.176627
H -3.440259 -3.094352 -1.244847
H -5.128781 -0.030963 -2.011302
H -3.674133 -1.019588 -2.360941
H -4.381317 0.396943 0.281479
H -3.066291 0.842358 -0.859841
H -0.270189 0.488884 2.098280
H -2.810867 2.173131 1.532756
H -3.074884 4.460170 0.701250
H -1.324977 5.487189 -0.758479
H 0.708111 4.170790 -1.336315
H 0.995832 1.878061 -0.505535
52
Mode: 0, Frequency: -180.29 cm**-1, Amplitude: -0.40
O 1.909597 -0.580881 2.118722
C 1.603285 -0.579019 0.949332
N 2.453921 -0.558156 -0.135544
C 3.862111 -0.536342 -0.160177
C 4.527669 -0.335396 -1.381279
C 5.919260 -0.307457 -1.416936
C 6.670263 -0.476309 -0.253446
C 6.003345 -0.677976 0.956561
C 4.611252 -0.711606 1.014173
N 1.763327 -0.516764 -1.348625
C 0.506800 -0.482382 -1.116415
C -0.480380 -0.512298 -2.228048
C 0.162820 -0.660970 0.367871
O -0.374678 -1.900111 0.551314
C -2.050065 -0.261426 1.418567
N -2.753261 -0.933187 0.261190
H -1.936604 -1.292532 -0.295412
C -3.480179 -2.168305 0.688355
C -4.195526 -2.760354 -0.517210
O -5.088657 -1.838938 -1.084810
C -4.409421 -0.711088 -1.563154
C -3.676281 0.015911 -0.449550
O -2.544381 -0.353055 2.486225
C -0.720679 0.417520 1.089878
C -0.900021 1.830841 0.539491
C -2.030167 2.592212 0.881619
C -2.187627 3.894206 0.420094
C -1.213427 4.476408 -0.394155
C -0.074949 3.740652 -0.724588
C 0.080988 2.431226 -0.261127
H 3.943323 -0.204435 -2.289598
H 6.419661 -0.149897 -2.374287
H 7.760311 -0.452350 -0.289960
H 6.574382 -0.815243 1.876773
H 4.104149 -0.868340 1.962215
H -1.233018 0.281276 -2.110359
H -0.991727 -1.492488 -2.228795
H 0.024150 -0.391181 -3.194895
H -4.198132 -1.873780 1.464763
H -2.722301 -2.842611 1.095794
H -4.771831 -3.636713 -0.188627
H -3.456259 -3.096352 -1.268847
H -5.148781 -0.020963 -1.997302
H -3.692133 -0.997588 -2.358941
H -4.383317 0.384943 0.305479
H -3.086291 0.852358 -0.845841
H -0.266189 0.506884 2.090280
H -2.802867 2.167131 1.530756
H -3.076884 4.462170 0.703250
H -1.332977 5.495189 -0.756479
H 0.702111 4.184790 -1.344315
H 0.993832 1.888061 -0.519535
52
Mode: 0, Frequency: -180.29 cm**-1, Amplitude: -0.20
O 1.913597 -0.586881 2.122722
C 1.607285 -0.585019 0.953332
N 2.455921 -0.558156 -0.133544
C 3.864111 -0.536342 -0.160177
C 4.527669 -0.335396 -1.381279
C 5.919260 -0.307457 -1.418936
C 6.670263 -0.476309 -0.255446
C 6.005345 -0.677976 0.954561
C 4.613252 -0.711606 1.014173
N 1.761327 -0.520764 -1.342625
C 0.504800 -0.502382 -1.108415
C -0.484380 -0.522298 -2.220048
C 0.168820 -0.648970 0.377871
O -0.424678 -1.848111 0.631314
C -2.000065 -0.315426 1.400567
N -2.751261 -0.937187 0.235190
H -1.978604 -1.274532 -0.371412
C -3.472179 -2.174305 0.664355
C -4.201526 -2.762354 -0.531210
O -5.098657 -1.834938 -1.086810
C -4.425421 -0.699088 -1.557154
C -3.686281 0.017911 -0.439550
O -2.512381 -0.389055 2.468225
C -0.708679 0.433520 1.077878
C -0.898021 1.838841 0.529491
C -2.028167 2.594212 0.879619
C -2.189627 3.898206 0.420094
C -1.217427 4.482408 -0.394155
C -0.078949 3.750652 -0.730588
C 0.080988 2.441226 -0.271127
H 3.943323 -0.204435 -2.289598
H 6.419661 -0.149897 -2.376287
H 7.760311 -0.452350 -0.291960
H 6.576382 -0.815243 1.874773
H 4.106149 -0.868340 1.962215
H -1.231018 0.277276 -2.096359
H -1.003727 -1.496488 -2.232795
H 0.022150 -0.395181 -3.184895
H -4.176132 -1.881780 1.452763
H -2.710301 -2.852611 1.061794
H -4.777831 -3.636713 -0.200627
H -3.472259 -3.098352 -1.292847
H -5.168781 -0.010963 -1.983302
H -3.710133 -0.975588 -2.356941
H -4.385317 0.372943 0.329479
H -3.106291 0.862358 -0.831841
H -0.262189 0.524884 2.082280
H -2.794867 2.161131 1.528756
H -3.078884 4.464170 0.705250
H -1.340977 5.503189 -0.754479
H 0.696111 4.198790 -1.352315
H 0.991832 1.898061 -0.533535
52
Mode: 0, Frequency: -180.29 cm**-1, Amplitude: 0.00
O 1.917597 -0.592881 2.126722
C 1.611285 -0.591019 0.957332
N 2.457921 -0.558156 -0.131544
C 3.866111 -0.536342 -0.160177
C 4.527669 -0.335396 -1.381279
C 5.919260 -0.307457 -1.420936
C 6.670263 -0.476309 -0.257446
C 6.007345 -0.677976 0.952561
C 4.615252 -0.711606 1.014173
N 1.759327 -0.524764 -1.336625
C 0.502800 -0.522382 -1.100415
C -0.488380 -0.532298 -2.212048
C 0.174820 -0.636970 0.387871
O -0.474678 -1.796111 0.711314
C -1.950065 -0.369426 1.382567
N -2.749261 -0.941187 0.209190
H -2.020604 -1.256532 -0.447412
C -3.464179 -2.180305 0.640355
C -4.207526 -2.764354 -0.545210
O -5.108657 -1.830938 -1.088810
C -4.441421 -0.687088 -1.551154
C -3.696281 0.019911 -0.429550
O -2.480381 -0.425055 2.450225
C -0.696679 0.449520 1.065878
C -0.896021 1.846841 0.519491
C -2.026167 2.596212 0.877619
C -2.191627 3.902206 0.420094
C -1.221427 4.488408 -0.394155
C -0.082949 3.760652 -0.736588
C 0.080988 2.451226 -0.281127
H 3.943323 -0.204435 -2.289598
H 6.419661 -0.149897 -2.378287
H 7.760311 -0.452350 -0.293960
H 6.578382 -0.815243 1.872773
H 4.108149 -0.868340 1.962215
H -1.229018 0.273276 -2.082359
H -1.015727 -1.500488 -2.236795
H 0.020150 -0.399181 -3.174895
H -4.154132 -1.889780 1.440763
H -2.698301 -2.862611 1.027794
H -4.783831 -3.636713 -0.212627
H -3.488259 -3.100352 -1.316847
H -5.188781 -0.000963 -1.969302
H -3.728133 -0.953588 -2.354941
H -4.387317 0.360943 0.353479
H -3.126291 0.872358 -0.817841
H -0.258189 0.542884 2.074280
H -2.786867 2.155131 1.526756
H -3.080884 4.466170 0.707250
H -1.348977 5.511189 -0.752479
H 0.690111 4.212790 -1.360315
H 0.989832 1.908061 -0.547535
52
Mode: 0, Frequency: -180.29 cm**-1, Amplitude: 0.20
O 1.921597 -0.598881 2.130722
C 1.615285 -0.597019 0.961332
N 2.459921 -0.558156 -0.129544
C 3.868111 -0.536342 -0.160177
C 4.527669 -0.335396 -1.381279
C 5.919260 -0.307457 -1.422936
C 6.670263 -0.476309 -0.259446
C 6.009345 -0.677976 0.950561
C 4.617252 -0.711606 1.014173
N 1.757327 -0.528764 -1.330625
C 0.500800 -0.542382 -1.092415
C -0.492380 -0.542298 -2.204048
C 0.180820 -0.624970 0.397871
O -0.524678 -1.744111 0.791314
C -1.900065 -0.423426 1.364567
N -2.747261 -0.945187 0.183190
H -2.062604 -1.238532 -0.523412
C -3.456179 -2.186305 0.616355
C -4.213526 -2.766354 -0.559210
O -5.118657 -1.826938 -1.090810
C -4.457421 -0.675088 -1.545154
C -3.706281 0.021911 -0.419550
O -2.448381 -0.461055 2.432225
C -0.684679 0.465520 1.053878
C -0.894021 1.854841 0.509491
C -2.024167 2.598212 0.875619
C -2.193627 3.906206 0.420094
C -1.225427 4.494408 -0.394155
C -0.086949 3.770652 -0.742588
C 0.080988 2.461226 -0.291127
H 3.943323 -0.204435 -2.289598
H 6.419661 -0.149897 -2.380287
H 7.760311 -0.452350 -0.295960
H 6.580382 -0.815243 1.870773
H 4.110149 -0.868340 1.962215
H -1.227018 0.269276 -2.068359
H -1.027727 -1.504488 -2.240795
H 0.018150 -0.403181 -3.164895
H -4.132132 -1.897780 1.428763
H -2.686301 -2.872611 0.993794
H -4.789831 -3.636713 -0.224627
H -3.504259 -3.102352 -1.340847
H -5.208781 0.009037 -1.955302
H -3.746133 -0.931588 -2.352941
H -4.389317 0.348943 0.377479
H -3.146291 0.882358 -0.803841
H -0.254189 0.560884 2.066280
H -2.778867 2.149131 1.524756
H -3.082884 4.468170 0.709250
H -1.356977 5.519189 -0.750479
H 0.684111 4.226790 -1.368315
H 0.987832 1.918061 -0.561535
52
Mode: 0, Frequency: -180.29 cm**-1, Amplitude: 0.40
O 1.925597 -0.604881 2.134722
C 1.619285 -0.603019 0.965332
N 2.461921 -0.558156 -0.127544
C 3.870111 -0.536342 -0.160177
C 4.527669 -0.335396 -1.381279
C 5.919260 -0.307457 -1.424936
C 6.670263 -0.476309 -0.261446
C 6.011345 -0.677976 0.948561
C 4.619252 -0.711606 1.014173
N 1.755327 -0.532764 -1.324625
C 0.498800 -0.562382 -1.084415
C -0.496380 -0.552298 -2.196048
C 0.186820 -0.612970 0.407871
O -0.574678 -1.692111 0.871314
C -1.850065 -0.477426 1.346567
N -2.745261 -0.949187 0.157190
H -2.104604 -1.220532 -0.599412
C -3.448179 -2.192305 0.592355
C -4.219526 -2.768354 -0.573210
O -5.128657 -1.822938 -1.092810
C -4.473421 -0.663088 -1.539154
C -3.716281 0.023911 -0.409550
O -2.416381 -0.497055 2.414225
C -0.672679 0.481520 1.041878
C -0.892021 1.862841 0.499491
C -2.022167 2.600212 0.873619
C -2.195627 3.910206 0.420094
C -1.229427 4.500408 -0.394155
C -0.090949 3.780652 -0.748588
C 0.080988 2.471226 -0.301127
H 3.943323 -0.204435 -2.289598
H 6.419661 -0.149897 -2.382287
H 7.760311 -0.452350 -0.297960
H 6.582382 -0.815243 1.868773
H 4.112149 -0.868340 1.962215
H -1.225018 0.265276 -2.054359
H -1.039727 -1.508488 -2.244795
H 0.016150 -0.407181 -3.154895
H -4.110132 -1.905780 1.416763
H -2.674301 -2.882611 0.959794
H -4.795831 -3.636713 -0.236627
H -3.520259 -3.104352 -1.364847
H -5.228781 0.019037 -1.941302
H -3.764133 -0.909588 -2.350941
H -4.391317 0.336943 0.401479
H -3.166291 0.892358 -0.789841
H -0.250189 0.578884 2.058280
H -2.770867 2.143131 1.522756
H -3.084884 4.470170 0.711250
H -1.364977 5.527189 -0.748479
H 0.678111 4.240790 -1.376315
H 0.985832 1.928061 -0.575535
52
Mode: 0, Frequency: -180.29 cm**-1, Amplitude: 0.60
O 1.929597 -0.610881 2.138722
C 1.623285 -0.609019 0.969332
N 2.463921 -0.558156 -0.125544
C 3.872111 -0.536342 -0.160177
C 4.527669 -0.335396 -1.381279
C 5.919260 -0.307457 -1.426936
C 6.670263 -0.476309 -0.263446
C 6.013345 -0.677976 0.946561
C 4.621252 -0.711606 1.014173
N 1.753327 -0.536764 -1.318625
C 0.496800 -0.582382 -1.076415
C -0.500380 -0.562298 -2.188048
C 0.192820 -0.600970 0.417871
O -0.624678 -1.640111 0.951314
C -1.800065 -0.531426 1.328567
N -2.743261 -0.953187 0.131190
H -2.146604 -1.202532 -0.675412
C -3.440179 -2.198305 0.568355
C -4.225526 -2.770354 -0.587210
O -5.138657 -1.818938 -1.094810
C -4.489421 -0.651088 -1.533154
C -3.726281 0.025911 -0.399550
O -2.384381 -0.533055 2.396225
C -0.660679 0.497520 1.029878
C -0.890021 1.870841 0.489491
C -2.020167 2.602212 0.871619
C -2.197627 3.914206 0.420094
C -1.233427 4.506408 -0.394155
C -0.094949 3.790652 -0.754588
C 0.080988 2.481226 -0.311127
H 3.943323 -0.204435 -2.289598
H 6.419661 -0.149897 -2.384287
H 7.760311 -0.452350 -0.299960
H 6.584382 -0.815243 1.866773
H 4.114149 -0.868340 1.962215
H -1.223018 0.261276 -2.040359
H -1.051727 -1.512488 -2.248795
H 0.014150 -0.411181 -3.144895
H -4.088132 -1.913780 1.404763
H -2.662301 -2.892611 0.925794
H -4.801831 -3.636713 -0.248627
H -3.536259 -3.106352 -1.388847
H -5.248781 0.029037 -1.927302
H -3.782133 -0.887588 -2.348941
H -4.393317 0.324943 0.425479
H -3.186291 0.902358 -0.775841
H -0.246189 0.596884 2.050280
H -2.762867 2.137131 1.520756
H -3.086884 4.472170 0.713250
H -1.372977 5.535189 -0.746479
H 0.672111 4.254790 -1.384315
H 0.983832 1.938061 -0.589535
52
Mode: 0, Frequency: -180.29 cm**-1, Amplitude: 0.80
O 1.933597 -0.616881 2.142722
C 1.627285 -0.615019 0.973332
N 2.465921 -0.558156 -0.123544
C 3.874111 -0.536342 -0.160177
C 4.527669 -0.335396 -1.381279
C 5.919260 -0.307457 -1.428936
C 6.670263 -0.476309 -0.265446
C 6.015345 -0.677976 0.944561
C 4.623252 -0.711606 1.014173
N 1.751327 -0.540764 -1.312625
C 0.494800 -0.602382 -1.068415
C -0.504380 -0.572298 -2.180048
C 0.198820 -0.588970 0.427871
O -0.674678 -1.588111 1.031314
C -1.750065 -0.585426 1.310567
N -2.741261 -0.957187 0.105190
H -2.188604 -1.184532 -0.751412
C -3.432179 -2.204305 0.544355
C -4.231526 -2.772354 -0.601210
O -5.148657 -1.814938 -1.096810
C -4.505421 -0.639088 -1.527154
C -3.736281 0.027911 -0.389550
O -2.352381 -0.569055 2.378225
C -0.648679 0.513520 1.017878
C -0.888021 1.878841 0.479491
C -2.018167 2.604212 0.869619
C -2.199627 3.918206 0.420094
C -1.237427 4.512408 -0.394155
C -0.098949 3.800652 -0.760588
C 0.080988 2.491226 -0.321127
H 3.943323 -0.204435 -2.289598
H 6.419661 -0.149897 -2.386287
H 7.760311 -0.452350 -0.301960
H 6.586382 -0.815243 1.864773
H 4.116149 -0.868340 1.962215
H -1.221018 0.257276 -2.026359
H -1.063727 -1.516488 -2.252795
H 0.012150 -0.415181 -3.134895
H -4.066132 -1.921780 1.392763
H -2.650301 -2.902611 0.891794
H -4.807831 -3.636713 -0.260627
H -3.552259 -3.108352 -1.412847
H -5.268781 0.039037 -1.913302
H -3.800133 -0.865588 -2.346941
H -4.395317 0.312943 0.449479
H -3.206291 0.912358 -0.761841
H -0.242189 0.614884 2.042280
H -2.754867 2.131131 1.518756
H -3.088884 4.474170 0.715250
H -1.380977 5.543189 -0.744479
H 0.666111 4.268790 -1.392315
H 0.981832 1.948061 -0.603535
52
Mode: 0, Frequency: -180.29 cm**-1, Amplitude: 1.00
O 1.937597 -0.622881 2.146722
C 1.631285 -0.621019 0.977332
N 2.467921 -0.558156 -0.121544
C 3.876111 -0.536342 -0.160177
C 4.527669 -0.335396 -1.381279
C 5.919260 -0.307457 -1.430936
C 6.670263 -0.476309 -0.267446
C 6.017345 -0.677976 0.942561
C 4.625252 -0.711606 1.014173
N 1.749327 -0.544764 -1.306625
C 0.492800 -0.622382 -1.060415
C -0.508380 -0.582298 -2.172048
C 0.204820 -0.576970 0.437871
O -0.724678 -1.536111 1.111314
C -1.700065 -0.639426 1.292567
N -2.739261 -0.961187 0.079190
H -2.230604 -1.166532 -0.827412
C -3.424179 -2.210305 0.520355
C -4.237526 -2.774354 -0.615210
O -5.158657 -1.810938 -1.098810
C -4.521421 -0.627088 -1.521154
C -3.746281 0.029911 -0.379550
O -2.320381 -0.605055 2.360225
C -0.636679 0.529520 1.005878
C -0.886021 1.886841 0.469491
C -2.016167 2.606212 0.867619
C -2.201627 3.922206 0.420094
C -1.241427 4.518408 -0.394155
C -0.102949 3.810652 -0.766588
C 0.080988 2.501226 -0.331127
H 3.943323 -0.204435 -2.289598
H 6.419661 -0.149897 -2.388287
H 7.760311 -0.452350 -0.303960
H 6.588382 -0.815243 1.862773
H 4.118149 -0.868340 1.962215
H -1.219018 0.253276 -2.012359
H -1.075727 -1.520488 -2.256795
H 0.010150 -0.419181 -3.124895
H -4.044132 -1.929780 1.380763
H -2.638301 -2.912611 0.857794
H -4.813831 -3.636713 -0.272627
H -3.568259 -3.110352 -1.436847
H -5.288781 0.049037 -1.899302
H -3.818133 -0.843588 -2.344941
H -4.397317 0.300943 0.473479
H -3.226291 0.922358 -0.747841
H -0.238189 0.632884 2.034280
H -2.746867 2.125131 1.516756
H -3.090884 4.476170 0.717250
H -1.388977 5.551189 -0.742479
H 0.660111 4.282790 -1.400315
H 0.979832 1.958061 -0.617535
52
Mode: 0, Frequency: -180.29 cm**-1, Amplitude: 0.80
O 1.933597 -0.616881 2.142722
C 1.627285 -0.615019 0.973332
N 2.465921 -0.558156 -0.123544
C 3.874111 -0.536342 -0.160177
C 4.527669 -0.335396 -1.381279
C 5.919260 -0.307457 -1.428936
C 6.670263 -0.476309 -0.265446
C 6.015345 -0.677976 0.944561
C 4.623252 -0.711606 1.014173
N 1.751327 -0.540764 -1.312625
C 0.494800 -0.602382 -1.068415
C -0.504380 -0.572298 -2.180048
C 0.198820 -0.588970 0.427871
O -0.674678 -1.588111 1.031314
C -1.750065 -0.585426 1.310567
N -2.741261 -0.957187 0.105190
H -2.188604 -1.184532 -0.751412
C -3.432179 -2.204305 0.544355
C -4.231526 -2.772354 -0.601210
O -5.148657 -1.814938 -1.096810
C -4.505421 -0.639088 -1.527154
C -3.736281 0.027911 -0.389550
O -2.352381 -0.569055 2.378225
C -0.648679 0.513520 1.017878
C -0.888021 1.878841 0.479491
C -2.018167 2.604212 0.869619
C -2.199627 3.918206 0.420094
C -1.237427 4.512408 -0.394155
C -0.098949 3.800652 -0.760588
C 0.080988 2.491226 -0.321127
H 3.943323 -0.204435 -2.289598
H 6.419661 -0.149897 -2.386287
H 7.760311 -0.452350 -0.301960
H 6.586382 -0.815243 1.864773
H 4.116149 -0.868340 1.962215
H -1.221018 0.257276 -2.026359
H -1.063727 -1.516488 -2.252795
H 0.012150 -0.415181 -3.134895
H -4.066132 -1.921780 1.392763
H -2.650301 -2.902611 0.891794
H -4.807831 -3.636713 -0.260627
H -3.552259 -3.108352 -1.412847
H -5.268781 0.039037 -1.913302
H -3.800133 -0.865588 -2.346941
H -4.395317 0.312943 0.449479
H -3.206291 0.912358 -0.761841
H -0.242189 0.614884 2.042280
H -2.754867 2.131131 1.518756
H -3.088884 4.474170 0.715250
H -1.380977 5.543189 -0.744479
H 0.666111 4.268790 -1.392315
H 0.981832 1.948061 -0.603535
52
Mode: 0, Frequency: -180.29 cm**-1, Amplitude: 0.60
O 1.929597 -0.610881 2.138722
C 1.623285 -0.609019 0.969332
N 2.463921 -0.558156 -0.125544
C 3.872111 -0.536342 -0.160177
C 4.527669 -0.335396 -1.381279
C 5.919260 -0.307457 -1.426936
C 6.670263 -0.476309 -0.263446
C 6.013345 -0.677976 0.946561
C 4.621252 -0.711606 1.014173
N 1.753327 -0.536764 -1.318625
C 0.496800 -0.582382 -1.076415
C -0.500380 -0.562298 -2.188048
C 0.192820 -0.600970 0.417871
O -0.624678 -1.640111 0.951314
C -1.800065 -0.531426 1.328567
N -2.743261 -0.953187 0.131190
H -2.146604 -1.202532 -0.675412
C -3.440179 -2.198305 0.568355
C -4.225526 -2.770354 -0.587210
O -5.138657 -1.818938 -1.094810
C -4.489421 -0.651088 -1.533154
C -3.726281 0.025911 -0.399550
O -2.384381 -0.533055 2.396225
C -0.660679 0.497520 1.029878
C -0.890021 1.870841 0.489491
C -2.020167 2.602212 0.871619
C -2.197627 3.914206 0.420094
C -1.233427 4.506408 -0.394155
C -0.094949 3.790652 -0.754588
C 0.080988 2.481226 -0.311127
H 3.943323 -0.204435 -2.289598
H 6.419661 -0.149897 -2.384287
H 7.760311 -0.452350 -0.299960
H 6.584382 -0.815243 1.866773
H 4.114149 -0.868340 1.962215
H -1.223018 0.261276 -2.040359
H -1.051727 -1.512488 -2.248795
H 0.014150 -0.411181 -3.144895
H -4.088132 -1.913780 1.404763
H -2.662301 -2.892611 0.925794
H -4.801831 -3.636713 -0.248627
H -3.536259 -3.106352 -1.388847
H -5.248781 0.029037 -1.927302
H -3.782133 -0.887588 -2.348941
H -4.393317 0.324943 0.425479
H -3.186291 0.902358 -0.775841
H -0.246189 0.596884 2.050280
H -2.762867 2.137131 1.520756
H -3.086884 4.472170 0.713250
H -1.372977 5.535189 -0.746479
H 0.672111 4.254790 -1.384315
H 0.983832 1.938061 -0.589535
52
Mode: 0, Frequency: -180.29 cm**-1, Amplitude: 0.40
O 1.925597 -0.604881 2.134722
C 1.619285 -0.603019 0.965332
N 2.461921 -0.558156 -0.127544
C 3.870111 -0.536342 -0.160177
C 4.527669 -0.335396 -1.381279
C 5.919260 -0.307457 -1.424936
C 6.670263 -0.476309 -0.261446
C 6.011345 -0.677976 0.948561
C 4.619252 -0.711606 1.014173
N 1.755327 -0.532764 -1.324625
C 0.498800 -0.562382 -1.084415
C -0.496380 -0.552298 -2.196048
C 0.186820 -0.612970 0.407871
O -0.574678 -1.692111 0.871314
C -1.850065 -0.477426 1.346567
N -2.745261 -0.949187 0.157190
H -2.104604 -1.220532 -0.599412
C -3.448179 -2.192305 0.592355
C -4.219526 -2.768354 -0.573210
O -5.128657 -1.822938 -1.092810
C -4.473421 -0.663088 -1.539154
C -3.716281 0.023911 -0.409550
O -2.416381 -0.497055 2.414225
C -0.672679 0.481520 1.041878
C -0.892021 1.862841 0.499491
C -2.022167 2.600212 0.873619
C -2.195627 3.910206 0.420094
C -1.229427 4.500408 -0.394155
C -0.090949 3.780652 -0.748588
C 0.080988 2.471226 -0.301127
H 3.943323 -0.204435 -2.289598
H 6.419661 -0.149897 -2.382287
H 7.760311 -0.452350 -0.297960
H 6.582382 -0.815243 1.868773
H 4.112149 -0.868340 1.962215
H -1.225018 0.265276 -2.054359
H -1.039727 -1.508488 -2.244795
H 0.016150 -0.407181 -3.154895
H -4.110132 -1.905780 1.416763
H -2.674301 -2.882611 0.959794
H -4.795831 -3.636713 -0.236627
H -3.520259 -3.104352 -1.364847
H -5.228781 0.019037 -1.941302
H -3.764133 -0.909588 -2.350941
H -4.391317 0.336943 0.401479
H -3.166291 0.892358 -0.789841
H -0.250189 0.578884 2.058280
H -2.770867 2.143131 1.522756
H -3.084884 4.470170 0.711250
H -1.364977 5.527189 -0.748479
H 0.678111 4.240790 -1.376315
H 0.985832 1.928061 -0.575535
52
Mode: 0, Frequency: -180.29 cm**-1, Amplitude: 0.20
O 1.921597 -0.598881 2.130722
C 1.615285 -0.597019 0.961332
N 2.459921 -0.558156 -0.129544
C 3.868111 -0.536342 -0.160177
C 4.527669 -0.335396 -1.381279
C 5.919260 -0.307457 -1.422936
C 6.670263 -0.476309 -0.259446
C 6.009345 -0.677976 0.950561
C 4.617252 -0.711606 1.014173
N 1.757327 -0.528764 -1.330625
C 0.500800 -0.542382 -1.092415
C -0.492380 -0.542298 -2.204048
C 0.180820 -0.624970 0.397871
O -0.524678 -1.744111 0.791314
C -1.900065 -0.423426 1.364567
N -2.747261 -0.945187 0.183190
H -2.062604 -1.238532 -0.523412
C -3.456179 -2.186305 0.616355
C -4.213526 -2.766354 -0.559210
O -5.118657 -1.826938 -1.090810
C -4.457421 -0.675088 -1.545154
C -3.706281 0.021911 -0.419550
O -2.448381 -0.461055 2.432225
C -0.684679 0.465520 1.053878
C -0.894021 1.854841 0.509491
C -2.024167 2.598212 0.875619
C -2.193627 3.906206 0.420094
C -1.225427 4.494408 -0.394155
C -0.086949 3.770652 -0.742588
C 0.080988 2.461226 -0.291127
H 3.943323 -0.204435 -2.289598
H 6.419661 -0.149897 -2.380287
H 7.760311 -0.452350 -0.295960
H 6.580382 -0.815243 1.870773
H 4.110149 -0.868340 1.962215
H -1.227018 0.269276 -2.068359
H -1.027727 -1.504488 -2.240795
H 0.018150 -0.403181 -3.164895
H -4.132132 -1.897780 1.428763
H -2.686301 -2.872611 0.993794
H -4.789831 -3.636713 -0.224627
H -3.504259 -3.102352 -1.340847
H -5.208781 0.009037 -1.955302
H -3.746133 -0.931588 -2.352941
H -4.389317 0.348943 0.377479
H -3.146291 0.882358 -0.803841
H -0.254189 0.560884 2.066280
H -2.778867 2.149131 1.524756
H -3.082884 4.468170 0.709250
H -1.356977 5.519189 -0.750479
H 0.684111 4.226790 -1.368315
H 0.987832 1.918061 -0.561535
